/*--------------------------------*- C++ -*----------------------------------*\
  =========                 |
  \\      /  F ield         | OpenFOAM: The Open Source CFD Toolbox
   \\    /   O peration     | Website:  https://openfoam.org
    \\  /    A nd           | Version:  7
     \\/     M anipulation  |
\*---------------------------------------------------------------------------*/
FoamFile
{
    version     2.0;
    format      ascii;
    class       dictionary;
    object      blockMeshDict;
}
// * * * * * * * * * * * * * * * * * * * * * * * * * * * * * * * * * * * * * //

convertToMeters    0.001;

vertices
(

    (0 0 0)
    (100 0 0)
    (100 100 0)
    (0 100 0)
    (0 0 1000)
    (100 0 1000)
    (100 100 1000)
    (0 100 1000)

);

blocks
(
    hex (0 1 2 3 4 5 6 7) (2 2 5) simpleGrading (1.0 1.0 1.0)
);

edges
(
);

boundary
(
    topSurface
    {
        type patch;
        faces
        (
            (2 3 7 6)
        );
    }

    bottomSurface
    {
        type patch;
        faces
        (
            (0 1 5 4)
        );
    }

    rearFixedEnd
    {
        type patch;
        faces
        (
            (4 5 6 7)
        );
    }

    frontTractionEnd
    {
        type patch;
        faces
        (
            (0 1 2 3)
        );
    }

    leftSurface
    {
        type patch;
        faces
        (
            (0 3 7 4)
        );
    }

    rightSurface
    {
        type patch;
        faces
        (
            (1 2 6 5)
        );
    }
);

mergePatchPairs
(
);

// ************************************************************************* //
